@<TRIPOS>MOLECULE
DPC
55 56
SMALL
NO_CHARGES


@<TRIPOS>ATOM
      1 C1         -2.4160   58.3090   -5.4640 C.2     393 DPC2        0.0000
      2 O1A        -3.3710   59.0640   -5.3230 O.co2   393 DPC2        0.0000
      3 O1B        -1.5990   58.1890   -4.5610 O.co2   393 DPC2        0.0000
      4 C2         -2.3440   57.4690   -6.6730 C.2     393 DPC2        0.0000
      5 C3         -1.4120   56.5180   -6.7960 C.2     393 DPC2        0.0000
      6 O6         -3.2930   57.6710   -7.5870 O.3     393 DPC2        0.0000
      7 C4         -1.3790   55.6270   -8.0080 C.3     393 DPC2        0.0000
      8 H3         -0.7225   56.4720   -5.9608 H       393 DPC2        0.0000
      9 C6         -3.5280   56.7290   -8.5990 C.3     393 DPC2        0.0000
     10 C5         -2.2120   56.1910   -9.1560 C.3     393 DPC2        0.0000
     11 NE         -0.0140   55.4590   -8.4300 N.4     393 DPC2        0.0000
     12 H4         -1.7701   54.7102   -7.7484 H       393 DPC2        0.0000
     13 C7         -4.2550   57.5050   -9.6740 C.2     393 DPC2        0.0000
     14 H6         -4.1136   55.9494   -8.2671 H       393 DPC2        0.0000
     15 N5         -2.4990   55.1260  -10.1100 N.am    393 DPC2        0.0000
     16 H5         -1.6944   56.9548   -9.6138 H       393 DPC2        0.0000
     17 HE1         0.4304   56.3827   -8.5307 H       393 DPC2        0.0000
     18 HE2         0.4973   54.9069   -7.7268 H       393 DPC2        0.0000
     19 HE3         0.0076   54.9672   -9.3346 H       393 DPC2        0.0000
     20 O7         -3.7430   58.2630   -9.9970 O.2     393 DPC2        0.0000
     21 N8         -5.3800   57.0300  -10.1910 N.am    393 DPC2        0.0000
     22 C10        -2.1370   55.1410  -11.4020 C.2     393 DPC2        0.0000
     23 H5         -3.0383   54.2286   -9.8291 H       393 DPC2        0.0000
     24 C81        -5.9710   57.8100  -11.3010 C.3     393 DPC2        0.0000
     25 C9         -6.0810   55.8520   -9.6850 C.3     393 DPC2        0.0000
     26 O10        -1.5630   56.1000  -11.8890 O.2     393 DPC2        0.0000
     27 C11        -2.4430   53.8710  -12.2170 C.3     393 DPC2        0.0000
     28 C82        -5.3950   57.4170  -12.6650 C.3     393 DPC2        0.0000
     29 H811       -5.7832   58.8071  -11.1236 H       393 DPC2        0.0000
     30 H812       -6.9879   57.6463  -11.2979 H       393 DPC2        0.0000
     31 C91        -6.9620   56.1710   -8.4650 C.3     393 DPC2        0.0000
     32 H91        -5.3696   55.1526   -9.4288 H       393 DPC2        0.0000
     33 H92        -6.6641   55.4842  -10.4503 H       393 DPC2        0.0000
     34 H111       -1.5672   53.3603  -12.3987 H       393 DPC2        0.0000
     35 H112       -3.0875   53.2688  -11.6853 H       393 DPC2        0.0000
     36 H113       -2.8790   54.1343  -13.1122 H       393 DPC2        0.0000
     37 CG         -6.0130   58.3010  -13.7300 C.ar    393 DPC2        0.0000
     38 H821       -5.6162   56.4316  -12.8672 H       393 DPC2        0.0000
     39 H822       -4.3731   57.5461  -12.6634 H       393 DPC2        0.0000
     40 C92        -7.8370   57.4310   -8.6020 C.3     393 DPC2        0.0000
     41 H911       -6.3444   56.2980   -7.6506 H       393 DPC2        0.0000
     42 H912       -7.5839   55.3663   -8.3021 H       393 DPC2        0.0000
     43 CD1        -5.5860   59.6390  -13.8840 C.ar    393 DPC2        0.0000
     44 CD2        -7.0380   57.8160  -14.5550 C.ar    393 DPC2        0.0000
     45 H921       -8.8297   57.1580   -8.6325 H       393 DPC2        0.0000
     46 H922       -7.6760   58.0503   -7.7950 H       393 DPC2        0.0000
     47 H923       -7.5906   57.9274   -9.4701 H       393 DPC2        0.0000
     48 CE1        -6.2020   60.4850  -14.8230 C.ar    393 DPC2        0.0000
     49 HD1        -4.7755   60.0213  -13.2740 H       393 DPC2        0.0000
     50 CE2        -7.6510   58.6560  -15.4900 C.ar    393 DPC2        0.0000
     51 HD2        -7.3589   56.7841  -14.4693 H       393 DPC2        0.0000
     52 CZ         -7.2490   59.9920  -15.6230 C.ar    393 DPC2        0.0000
     53 HE1        -5.8715   61.5119  -14.9296 H       393 DPC2        0.0000
     54 HE2        -8.4452   58.2679  -16.1175 H       393 DPC2        0.0000
     55 HZ         -7.7437   60.6386  -16.3387 H       393 DPC2        0.0000
@<TRIPOS>BOND
     1    1    2 ar
     2    1    3 ar
     3    1    4 1
     4    4    5 2
     5    4    6 1
     6    5    7 1
     7    7   10 1
     8    7   11 1
     9   10   15 1
    10   10    9 1
    11   15   22 am
    12   22   26 2
    13   22   27 1
    14    9    6 1
    15    9   13 1
    16   13   20 2
    17   13   21 am
    18   21   24 1
    19   21   25 1
    20   24   28 1
    21   28   37 1
    22   37   43 ar
    23   37   44 ar
    24   43   48 ar
    25   44   50 ar
    26   48   52 ar
    27   50   52 ar
    28   25   31 1
    29   31   40 1
    30   43   49 1
    31   44   51 1
    32   48   53 1
    33   50   54 1
    34   52   55 1
    35    7   12 1
    36   10   16 1
    37   27   34 1
    38   27   35 1
    39   27   36 1
    40    9   14 1
    41   24   29 1
    42   24   30 1
    43   28   38 1
    44   28   39 1
    45   25   32 1
    46   25   33 1
    47   31   41 1
    48   31   42 1
    49   40   45 1
    50   40   46 1
    51   40   47 1
    52   11   17 1
    53   11   18 1
    54   11   19 1
    55    5    8 1
    56   15   23 1
